notes.txt
My values:
4 Iterations were completed
THERE WAS CONVERGENCE!!!
--------------------------
| Bus |    V   |  Angle  | 
| No  |   pu   |  Degree | 
--------------------------
   1    1.0000     0.0000
   2    1.0000    -0.4155
   3    0.9831    -1.5221
   4    0.9801    -1.7947
   5    0.9824    -1.8638
   6    0.9732    -2.2670
   7    0.9674    -2.6518
   8    0.9606    -2.7258
   9    0.9805    -2.9969
  10    0.9844    -3.3749
  11    0.9805    -2.9969
  12    0.9855    -1.5369
  13    1.0000     1.4762
  14    0.9767    -2.3080
  15    0.9802    -2.3118
  16    0.9774    -2.6445
  17    0.9769    -3.3923
  18    0.9684    -3.4784
  19    0.9653    -3.9582
  20    0.9692    -3.8710
  21    0.9934    -3.4884
  22    1.0000    -3.3927
  23    1.0000    -1.5892
  24    0.9886    -2.6315
  25    0.9902    -1.6900
  26    0.9722    -2.1393
  27    1.0000    -0.8284
  28    0.9747    -2.2659
  29    0.9796    -2.1285
  30    0.9679    -3.0415
--------------------------
|     Bus Data                                                                 |
================================================================================
 Bus      Voltage          Generation             Load        
  #   Mag(pu) Ang(deg)   P (MW)   Q (MVAr)   P (MW)   Q (MVAr)
----- ------- --------  --------  --------  --------  --------
    1  1.000    0.000*    25.97     -1.00       -         -   
    2  1.000   -0.415     60.97     32.00     21.70     12.70 
    3  0.983   -1.522       -         -        2.40      1.20 
    4  0.980   -1.795       -         -        7.60      1.60 
    5  0.982   -1.864       -         -         -         -   
    6  0.973   -2.267       -         -         -         -   
    7  0.967   -2.652       -         -       22.80     10.90 
    8  0.961   -2.726       -         -       30.00     30.00 
    9  0.981   -2.997       -         -         -         -   
   10  0.984   -3.375       -         -        5.80      2.00 
   11  0.981   -2.997       -         -         -         -   
   12  0.985   -1.537       -         -       11.20      7.50 
   13  1.000    1.476     37.00     11.35       -         -   
   14  0.977   -2.308       -         -        6.20      1.60 
   15  0.980   -2.312       -         -        8.20      2.50 
   16  0.977   -2.644       -         -        3.50      1.80 
   17  0.977   -3.392       -         -        9.00      5.80 
   18  0.968   -3.478       -         -        3.20      0.90 
   19  0.965   -3.958       -         -        9.50      3.40 
   20  0.969   -3.871       -         -        2.20      0.70 
   21  0.993   -3.488       -         -       17.50     11.20 
   22  1.000   -3.393     21.59     39.57       -         -   
   23  1.000   -1.589     19.20      7.95      3.20      1.60 
   24  0.989   -2.631       -         -        8.70      6.70 
   25  0.990   -1.690       -         -         -         -   
   26  0.972   -2.139       -         -        3.50      2.30 
   27  1.000   -0.828     26.91     10.54       -         -   
   28  0.975   -2.266       -         -         -         -   
   29  0.980   -2.128       -         -        2.40      0.90 
   30  0.968   -3.042       -         -       10.60      1.90 
